20
 energy: -32.782977059702 gnorm: 0.000636978810 xtb: 6.6.0 (conda-forge)
C            3.67147501248143       -0.45181925032504       -0.23809915620531
C            2.27597727916139       -0.74172046597925        0.28338295879050
O            2.04560841059731       -1.58389968693026        1.11967553825040
N            1.33348808537751        0.04873112416720       -0.30668889507679
C           -0.05007372199509        0.08935053488468       -0.08950164759687
C           -0.70486259558192       -0.76502090806046        0.79431333125118
C           -2.07029292876579       -0.67161145021876        0.96567614536638
C           -2.81031248098587        0.27288141191469        0.26141766438278
C           -2.15991644358376        1.12413169389108       -0.62284487019435
C           -0.79232600292775        1.03135220297133       -0.79558223137848
O           -4.15574294146716        0.32860064402499        0.46583509882104
H            4.38969478507669       -1.03906842065175        0.32644642156247
H            3.73976793809663       -0.72489027451066       -1.28931262800029
H            3.90776487315390        0.60499327692408       -0.13215255507016
H            1.66480434250117        0.71550888798642       -0.99039430003191
H           -0.13728995398796       -1.49643468990224        1.34368309957548
H           -2.58537638784265       -1.32841874148069        1.64765772489101
H           -2.72423643773773        1.86227698334701       -1.17763895831587
H           -0.29750131573438        1.69996078575420       -1.48652717511787
H           -4.54044951583609        1.02509634219345       -0.07924556590377
