21
 energy: -39.629090792336 gnorm: 0.000661311077 xtb: 6.6.0 (conda-forge)
C           -2.68694512744180       -2.26875561216514        0.17125979850884
C           -2.00581274600041       -1.06558362430730       -0.41273497380734
O           -2.25768048180762       -0.54741804037521       -1.46427520122000
O           -1.03134122179351       -0.65261224038536        0.42416371508528
C           -0.20191310570659        0.39233963369207        0.08709766803653
C           -0.70771747430573        1.62210435623350       -0.30895307446809
C            0.15628108799480        2.67017356696726       -0.57219281715316
C            1.52445627601439        2.50367020635791       -0.42880138054351
C            2.03245343395417        1.28125063194660       -0.03480264168486
C            1.18150298848206        0.20742403653419        0.21842003639465
C            1.73166964957678       -1.12020160170622        0.57867707407895
O            1.13579863938274       -2.16619887863283        0.54318832017179
O            3.02389452473084       -1.05834623481822        0.94358303776583
H           -3.49776995052235       -2.58601594395126       -0.47635657332454
H           -3.06318648147500       -2.03251770909164        1.16386668856060
H           -1.94992400106750       -3.06270127238763        0.27147877085019
H           -1.77363529226225        1.74798379566303       -0.41399497129273
H           -0.24400344480090        3.62214969918626       -0.88634925488089
H            2.19418164506369        3.32599679346688       -0.62837459902497
H            3.09589827493220        1.13689795297795        0.07157794753816
H            3.34389280705173       -1.94953951520412        1.15352243040959
