12
 energy: -15.879640652375 gnorm: 0.000045787877 xtb: 6.6.0 (conda-forge)
C            1.36093436425715        0.25492812217740        0.00304838069256
C            0.45989589859178        1.30546044543013       -0.03764978383383
C           -0.90103944026737        1.05053101782372       -0.04069901552033
C           -1.36093436426103       -0.25492812217904       -0.00304838069254
C           -0.45989589859163       -1.30546044543116        0.03764978383387
C            0.90103944026850       -1.05053101782026        0.04069901552024
H            2.42294469624376        0.45386149301107        0.00544102009718
H            0.81877884578010        2.32417899075292       -0.06699888524466
H           -1.60417314001975        1.87031237297874       -0.07244234255241
H           -2.42294469624180       -0.45386149301230       -0.00544102009713
H           -0.81877884577880       -2.32417899075191        0.06699888524462
H            1.60417314001909       -1.87031237297933        0.07244234255242
