12
 energy: -15.879640652462 gnorm: 0.000045507795 xtb: 6.6.0 (conda-forge)
C            0.79818056037225       -1.13129831773277        0.01474563775421
C            1.37890682172434        0.12552911629861       -0.00211465889637
C            0.58072622328809        1.25682644401976       -0.01686860763633
C           -0.79818057016957        1.13129822761896       -0.01475247575909
C           -1.37890681551981       -0.12552913066151        0.00211069967328
C           -0.58072619802297       -1.25682666423495        0.01685301034676
H            1.42104052216152       -2.01411121615576        0.02627320866182
H            2.45493960841616        0.22349346346471       -0.00374527176986
H            1.03389307323972        2.23759821196273       -0.03001091474067
H           -1.42104050007572        2.01411135027905       -0.02626405716952
H           -2.45493958771275       -0.22349343999772        0.00375312578381
H           -1.03389313770126       -2.23759804486112        0.03002030375197
