18
 energy: -31.241193826124 gnorm: 0.000837773523 xtb: 6.6.0 (conda-forge)
C            2.43248528071041       -0.07561619003425        0.40824013450634
C            1.49549860134602       -0.09526036613119       -0.80310387638814
C            0.04935092517403       -0.14559329129995       -0.38671692560569
C           -0.68071584352459        0.92122608052666        0.02420241590869
C           -2.09497728962497        0.77614958338682        0.43516744185145
O           -2.78757237536264        1.70587202720585        0.80099435284924
C           -2.54960853732062       -0.60482289154641        0.35212698033104
C           -1.73549463746183       -1.58631287708559       -0.06518078003633
O           -0.46764694732919       -1.40169806386824       -0.43494783331724
O           -0.18010265297650        2.17727330294828        0.08678837016173
H            3.46723210072143       -0.02039714609971        0.07965680435813
H            2.22709279859601        0.77637959977524        1.05253345566404
H            2.30478095371084       -0.98214888913522        0.99430031529272
H            1.69772422163514       -0.98525645998634       -1.40050002674331
H            1.67733118527984        0.77911085354909       -1.43394392787084
H           -3.56679995827749       -0.81488441277252        0.63698264527135
H           -2.02849510357952       -2.62392769058998       -0.14483327290893
H            0.74001727828362        2.19980683115747       -0.20146627332425
