24
 energy: -43.354364208481 gnorm: 0.000239932520 xtb: 6.6.0 (conda-forge)
C            0.43772795340779       -0.83620674981009        1.68074929444012
C            1.64854169910204       -0.15487960701692        1.01479952964705
C            1.18068346579145        0.51086452785604       -0.30351464510091
C            0.07524535087016       -0.34396658785075       -0.94149913360000
C           -1.15308960327916       -0.38759125181907        0.00010381331685
O           -0.76461151624816       -0.19253833851530        1.32988672843423
C           -2.19117746852080        0.69952151575129       -0.32970789296517
O           -3.32913293886721        0.56051189030904        0.47310061461651
O           -1.77603223894516       -1.65742199462475       -0.07360655453143
O           -0.27758911670246        0.14749963652759       -2.20815453954058
O            2.24022712150989        0.66940575176299       -1.21335471529956
O            2.62058357388251       -1.14487105570671        0.74114343830471
H            0.42202069842957       -1.89048075669580        1.38255541707666
H            0.50051256507222       -0.77442287912600        2.76689951927465
H            2.06441661879379        0.61415970673285        1.67544573363507
H            0.79443358492013        1.51414805923270       -0.10442467025985
H            0.46009554505956       -1.37536216838716       -1.04375916528042
H           -1.75917923833365        1.68623398128546       -0.14684587819284
H           -2.45695967818065        0.61598089098513       -1.39285458629862
H           -3.33602478703042       -0.34463922760076        0.81321708109941
H           -2.06808096362958       -1.79899920748707       -0.98156174673708
H            0.50178637004232        0.60084509486428       -2.56319003816597
H            2.67288739986831       -0.19388677425705       -1.29970200384647
H            3.49271560298753       -0.73600445640999        0.72427439997349
