24
 energy: -43.353420583455 gnorm: 0.000882577433 xtb: 6.6.0 (conda-forge)
C           -2.24224400599512        0.46620461459666        0.57669566416941
C           -1.12414656183098       -0.23212354370571       -0.22237104315131
C           -0.08388643189121       -0.85717867083012        0.71189695956849
C            1.24485136195734       -1.00145281951174       -0.05689961730788
C            1.78454453064723        0.40014074629132       -0.38021515514409
C            0.60013717084221        1.34486825467200       -0.70697201120476
O           -0.52479545767992        0.64180897399677       -1.16934463494430
O            0.32483122087218        2.11623006952067        0.41640184931080
O            2.72919119676223        0.38371653518310       -1.41085658153924
O            2.20150669360559       -1.69584362471936        0.70568021609732
O           -0.57837235024534       -2.10576972242762        1.13931181838237
O           -3.02860590595608        1.30987761918400       -0.22218945174503
H           -2.84983862996017       -0.31359592147699        1.05775505646692
H           -1.81561303539628        1.10541442900585        1.35256501056863
H           -1.56651484948212       -1.03565908250969       -0.82573275755822
H            0.09307662028787       -0.19912654144108        1.57395676700117
H            1.04652943495695       -1.53257122494250       -1.00220138303263
H            2.30627915035531        0.78739747521656        0.49894578494968
H            0.88726931751091        1.97752802977250       -1.56381088349659
H           -0.43904562282227        2.67848843919684        0.22689976680775
H            2.33045440544949        0.00069061940140       -2.20205207744796
H            2.00307914317879       -2.63849507982092        0.67506565427483
H           -0.00181496809307       -2.43048602711032        1.84156709387550
H           -3.29697242707333        0.82983645245804       -1.01399604490067
