33
 energy: -45.171145802114 gnorm: 0.000414635912 xtb: 6.6.0 (conda-forge)
C           -3.26000752467764       -0.29496073890726       -1.26134166676427
C           -3.33774988100263        0.52123470128410        0.02537557435235
C           -2.96137494227834        1.97478063281493       -0.24617835547567
C           -2.46186020448090       -0.09085722180232        1.13832551850852
C           -1.00018918155605       -0.12404473915215        0.79878509181175
C           -0.44495431317642       -1.21165688603048        0.13431352276350
C            0.89669520061858       -1.23519092918566       -0.19719327388824
C            1.72339536212155       -0.16906017597917        0.13383869091596
C            1.17571559155085        0.91851184924712        0.79885774348267
C           -0.16706993641991        0.93722917705148        1.12997044634834
C            3.20003943970241       -0.20315201086393       -0.20048836882658
C            3.91341960603502       -1.32623143321211        0.55346905753038
C            3.31756154136951       -0.40261190384915       -1.69604321977591
O            3.29780534117690       -1.45662723918993       -2.27175988193325
O            3.41444374136295        0.76724787427821       -2.34258714766891
H           -2.24954899956127       -0.27814594433647       -1.66319006997113
H           -3.54532200800259       -1.32906243667296       -1.08052309903178
H           -3.93317439768437        0.11799381986341       -2.00953324664769
H           -4.37310984268193        0.49584333392404        0.38632344790379
H           -1.94328421358906        2.04068856998866       -0.62316494331533
H           -3.63040700079963        2.40375010804503       -0.98905366136090
H           -3.03513812226926        2.56910649910787        0.66202083782553
H           -2.81178780144766       -1.10785652029185        1.32969908421090
H           -2.60774204868875        0.49396955119048        2.04946283430704
H           -1.06913508339061       -2.05521987950311       -0.12232626762778
H            1.30532380409459       -2.08404008487704       -0.72467867648732
H            1.80434493606225        1.75603113966371        1.06632181732263
H           -0.57062873933086        1.78821355494977        1.65946010238769
H            3.64254975212472        0.76558116097659        0.04606734448480
H            4.98817599808359       -1.26229399069197        0.39960213904815
H            3.70356373235953       -1.25074307789300        1.61744442464700
H            3.57128113662276       -2.29225299600551        0.19308915557298
H            3.44826905775273        0.62342623605856       -3.30196495464905
