20
 energy: -27.117710240882 gnorm: 0.000306180802 xtb: 6.6.0 (conda-forge)
C           -1.80920781882781       -1.06749412203411       -0.61058138544274
C           -1.56397105682973        0.09072880495627        0.35313857277431
C           -1.62878873793504        1.42947596992915       -0.37750649364212
C           -0.21619510368121       -0.07230880917572        1.05502780185946
O            0.83286771271876       -0.05307191587982        0.08672225571775
C            2.07349933388121       -0.20035044064048        0.55435106524028
O            2.33601003992551       -0.33500894152992        1.72053612883693
C            3.08111813366773       -0.19088320469137       -0.56657784346151
H           -1.78794106387196       -2.01756806778053       -0.08168411520561
H           -1.04073443305866       -1.08089810146688       -1.37907995558303
H           -2.77922699454013       -0.96137127650435       -1.08991215202637
H           -2.33080980525419        0.07321619934921        1.13537665579950
H           -2.59918151767724        1.55477575196690       -0.85142094797490
H           -0.85914508865788        1.47265988226531       -1.14368052895701
H           -1.47459420160604        2.25285858632847        0.31606739141008
H           -0.17136416417808       -1.02033338605647        1.60319754873160
H           -0.04659776820788        0.73907848259608        1.77205870819169
H            2.66946329871762        0.30423945439129       -1.44010065881420
H            3.98969716215266        0.30288374955470       -0.23441660674631
H            3.32510207326237       -1.22052861557775       -0.82161544070777
