19
 energy: -33.382190212340 gnorm: 0.000407099973 xtb: 6.6.0 (conda-forge)
C           -2.46253207163860       -1.32381881596712       -0.63635128118359
O           -2.07196904611393        0.00945214304291       -0.40607471649479
C           -0.75126454769815        0.25006202183320       -0.11890122398690
C           -0.43996174010438        1.60971692567388        0.09891573116970
C            0.86343516424409        1.98173907654070        0.39791915756188
C            1.85683483849687        1.02654688691957        0.48315801398298
C            1.55703442169480       -0.31587591240670        0.26970231611035
C            0.24350816806559       -0.69769051044058       -0.03259773860157
C            2.59252084614243       -1.34254467526770        0.35559046733310
O            2.42178945022790       -2.52548653677856        0.18459521832867
O           -1.40694284314235        2.54707915432088        0.01689898928508
H           -2.28171500815469       -1.94806425472711        0.24333111026065
H           -1.93949005970149       -1.74745649067434       -1.49842682071727
H           -3.53099758092495       -1.28636274944497       -0.84196971671083
H            1.07133783882101        3.02714806006543        0.55923148251237
H            2.86925669885098        1.31987588256409        0.71593753158342
H            0.05336475852270       -1.74747200891053       -0.19080055782525
H            3.59746236804445       -0.94263912079417        0.59767046809135
H           -2.24157165563228        2.10589092445112       -0.19792843069933
