59
 energy: 78.902767358139 gnorm: 1029.877773086742 xtb: 6.6.0 (conda-forge)
C           -4.33210000000000        4.69770000000000        1.51530000000000
N           -3.52080000000000        4.44280000000000        0.31830000000000
C           -3.60280000000000        5.38140000000000       -0.80770000000000
C           -2.65270000000000        3.28130000000000        0.24880000000000
C           -2.87250000000000        2.16230000000000        1.07920000000000
C           -2.03640000000000        1.04500000000000        1.01020000000000
C           -0.96810000000000        1.01300000000000        0.10320000000000
C           -0.72920000000000        2.12530000000000       -0.71360000000000
C           -1.56420000000000        3.24390000000000       -0.64780000000000
C           -0.05680000000000       -0.15640000000000        0.05290000000000
C           -0.50490000000000       -1.40510000000000       -0.25230000000000
C           -1.88790000000000       -1.63340000000000       -0.74860000000000
C           -2.32860000000000       -2.85730000000000       -1.05000000000000
C           -1.45830000000000       -4.06150000000000       -0.90150000000000
N           -1.89430000000000       -5.27600000000000       -1.19780000000000
C           -1.02640000000000       -6.45780000000000       -1.04670000000000
C           -3.26590000000000       -5.49660000000000       -1.69090000000000
C           -0.07120000000000       -3.82600000000000       -0.40160000000000
C            0.36720000000000       -2.60030000000000       -0.10400000000000
C            1.37050000000000        0.11240000000000        0.35480000000000
C            1.73390000000000        0.68200000000000        1.58150000000000
C            3.07300000000000        0.96780000000000        1.86010000000000
C            4.08190000000000        0.70090000000000        0.91050000000000
C            3.70120000000000        0.14390000000000       -0.32850000000000
C            2.36130000000000       -0.14030000000000       -0.60390000000000
N            5.47430000000000        0.99540000000000        1.19890000000000
C            6.54810000000000        0.34270000000000        0.43940000000000
C            5.83270000000000        1.94950000000000        2.25590000000000
Cl           0.00000000000000        0.00000000000000        0.00000000000000
H           -3.69990000000000        4.61420000000000        2.42480000000000
H           -4.76720000000000        5.71940000000000        1.50440000000000
H           -5.16530000000000        3.96620000000000        1.56920000000000
H           -3.75550000000000        4.82210000000000       -1.75530000000000
H           -4.45580000000000        6.08350000000000       -0.69360000000000
H           -2.66870000000000        5.97810000000000       -0.87090000000000
H           -3.69430000000000        2.13960000000000        1.78110000000000
H           -2.22090000000000        0.20280000000000        1.66610000000000
H            0.10320000000000        2.12490000000000       -1.40690000000000
H           -1.34290000000000        4.08200000000000       -1.29370000000000
H           -2.56230000000000       -0.80250000000000       -0.91010000000000
H           -3.34230000000000       -2.93980000000000       -1.41680000000000
H           -0.13130000000000       -6.35900000000000       -1.69760000000000
H           -0.71660000000000       -6.56970000000000        0.01440000000000
H           -1.53930000000000       -7.39810000000000       -1.33760000000000
H           -3.47550000000000       -6.56830000000000       -1.89040000000000
H           -3.41980000000000       -4.95030000000000       -2.64620000000000
H           -4.00290000000000       -5.15520000000000       -0.93270000000000
H            0.61890000000000       -4.64530000000000       -0.25560000000000
H            1.37340000000000       -2.50690000000000        0.28320000000000
H            0.97920000000000        0.89710000000000        2.32830000000000
H            3.31150000000000        1.38990000000000        2.82610000000000
H            4.43230000000000       -0.06240000000000       -1.09750000000000
H            2.09390000000000       -0.55400000000000       -1.56870000000000
H            6.58320000000000        0.75160000000000       -0.59200000000000
H            7.54040000000000        0.50520000000000        0.91070000000000
H            6.37220000000000       -0.75360000000000        0.40300000000000
H            5.62670000000000        1.50430000000000        3.25180000000000
H            5.24670000000000        2.88520000000000        2.13480000000000
H            6.90830000000000        2.22240000000000        2.21390000000000
