17
 energy: -25.745766288742 gnorm: 0.000218021729 xtb: 6.6.0 (conda-forge)
C           -2.27692755526391        0.71124878719440        0.19854462254932
C           -2.36462970539482       -0.62253377661937       -0.23352736864892
C           -1.23467071886954       -1.35855044402278       -0.45579953268631
C            0.03800753911447       -0.78515083232737       -0.25311702481971
C            0.12714563055677        0.56550411670015        0.18442550004796
C           -1.05813086698797        1.29497335985385        0.40382452698749
C            1.41684913355966        1.10363854243759        0.37594935229536
C            2.51095597916690        0.31826153923948        0.13724056722132
C            2.30642941925079       -1.00598532814904       -0.29335175639600
N            1.13300971859173       -1.53853256289184       -0.48147795214992
H           -3.18413580030423        1.27279714169890        0.36750982258685
H           -3.33902663882519       -1.06223097015977       -0.38892927950937
H           -1.27958525970277       -2.38398242465451       -0.78767463153109
H           -0.98319191723808        2.32112894582212        0.73634474625985
H            1.51983818089573        2.12805988835904        0.70829524889612
H            3.51428688822572        0.69246188475024        0.27187966482313
H            3.15397597322472       -1.65110786723110       -0.49013650592606
