24
 energy: -42.153814078488 gnorm: 0.000456448681 xtb: 6.6.0 (conda-forge)
C            3.27587556465966        0.61559139176541       -0.19034446403610
N            2.15778158447630       -0.28276815412797       -0.20379944331604
C            2.15784204283939       -1.61604541529950       -0.37112162262018
N            0.95602936192708       -2.15217707538442       -0.34272252147419
C            0.12202842888467       -1.10699223303475       -0.14650318880678
C            0.83829316750035        0.07781042302988       -0.05361383303294
C            0.21336750797924        1.34768573429053        0.16058309248620
O            0.76590466258820        2.42687332812393        0.25887315621505
N           -1.17441950838372        1.21011800138346        0.25542035231196
C           -1.92259655470563        0.04280000384669        0.15922277876517
O           -3.12991306857349        0.06023310715046        0.25381373517467
N           -1.23181509045996       -1.13452459023030       -0.03685483210946
C           -1.96164109879697       -2.37821058451889       -0.15437028755603
C           -1.95086971403031        2.42021805550874        0.47057388851197
H            4.19826626071425        0.04571659910199       -0.28449878312699
H            3.19484733229382        1.32535441479846       -1.01526224699552
H            3.28387137943409        1.18429232181899        0.74030318578442
H            3.05382164167781       -2.18689148591573       -0.51375106044670
H           -1.29911649832340       -3.18786456610748        0.14074136984335
H           -2.83739941914020       -2.33099858742711        0.49068512306934
H           -2.28915075673857       -2.53172312278870       -1.18413261889148
H           -2.64839328685662        2.26321849635547        1.29139641171762
H           -2.51822981460017        2.66612989834781       -0.42724557733654
H           -1.25428412436582        3.22225403931303        0.70250738586921
