53
 energy: -68.451035368349 gnorm: 0.000358704899 xtb: 6.6.0 (conda-forge)
C            6.39886010272599        0.33519107226859        2.12015651148952
C            4.90637333979908        0.64701520217602        2.09261648792100
C            4.28693793963331        0.50654716452308        0.70140183366773
C            4.23245594569107       -0.93704397813966        0.20842556742940
C            3.55751917875765       -1.05227344973897       -1.16522901535749
C            2.09957443429609       -0.69644856862321       -1.10727626678640
C            1.65191138608472        0.54941369948931       -1.50960372420400
C            0.30141401710306        0.88928772022949       -1.45793381915601
C           -0.63380568332973       -0.04659640895024       -1.02969912643730
C           -2.14006980288242        0.07512217831712       -0.95917781776937
C           -2.76330244842230        1.35611853961775       -1.42281285164975
C           -3.61300278508266        2.08050164048949       -0.70301792993693
C           -4.01759472713916        1.65964179653301        0.68245280583617
C           -3.91014243214403        0.14331347426625        0.83471353915799
C           -2.48544874945933       -0.28219666115713        0.49759559194955
C           -2.18187577599449       -1.77781273913552        0.71625784208924
O           -1.03339635068446       -2.20591068182239       -0.05899654188385
C           -0.16409482396280       -1.27215551626387       -0.54289851130493
C            1.18150749174201       -1.60188884448083       -0.59352022853341
C           -1.84231020129928       -2.03984476419391        2.18845890054121
C           -3.32591346904795       -2.69464114548533        0.27753025485092
C           -4.23981365480744        3.33661420537184       -1.22272360391802
O           -0.01585345099166        2.15802026605007       -1.84633808831694
H            6.80621508326347        0.52966881213161        3.10942802368143
H            6.58485703632220       -0.70727224151085        1.87664174712551
H            6.92873102650450        0.95740270316340        1.40237581810019
H            4.38355293286778       -0.01421453549395        2.78732357288643
H            4.75574328102171        1.67286848070926        2.43684037745610
H            4.86006934673830        1.10814376860086       -0.00805136395358
H            3.26950278000798        0.90411837613689        0.72564030771800
H            3.68127877438712       -1.54408112938660        0.92986540602243
H            5.24386464130103       -1.33788605046793        0.13034226429396
H            4.06814883137565       -0.39431965997291       -1.87001581758211
H            3.65863871331985       -2.08019246993252       -1.51913180429433
H            2.33997589916277        1.29539451669756       -1.87618943501800
H           -2.53530596493084       -0.72246987786991       -1.61027095891314
H           -2.56892722721231        1.61683893013977       -2.45642335206906
H           -3.37736399070849        2.15350350937304        1.41953225566906
H           -5.04252143226014        1.98177572815258        0.87389743055862
H           -4.61531188057070       -0.33173276864399        0.15256801489545
H           -4.16198674497169       -0.14779864755009        1.85492496293374
H           -1.80703076783846        0.29004453619946        1.14378744981148
H            1.49323876181762       -2.57158584121575       -0.23808461031813
H           -2.66952756544125       -1.74232226624202        2.82538540937703
H           -0.95457513552368       -1.47774566690928        2.47127001361488
H           -1.64115920299615       -3.09742747137782        2.33547258999701
H           -3.65642146804612       -2.44981057458303       -0.72857790807825
H           -2.96336946261123       -3.71933424436214        0.27423213042206
H           -4.16325503108155       -2.61592794497935        0.96218246228146
H           -3.86379558020473        3.58771305463888       -2.21111514215482
H           -4.03526582870620        4.16428717590420       -0.54515295151720
H           -5.32073697528195        3.21857555474476       -1.28127415032713
H           -0.94759233028634        2.34391204256661       -1.64020455229792
