11
 energy: -16.150108060781 gnorm: 0.000743443926 xtb: 6.6.0 (conda-forge)
C           -0.16424783457239        1.17591136574964       -0.02225256916774
C           -1.24682738643576        0.31215862684520        0.03020925257958
C           -0.99681196575452       -1.05179058579888        0.05425878167055
N            0.21924828751147       -1.56952859702610        0.02974524416080
C            1.24708476476338       -0.73976468281615       -0.02028368563717
C            1.11378598866593        0.64041403083708       -0.04820987997348
H           -0.31375144268671        2.24621733549842       -0.04252265919995
H           -2.25866278371006        0.68644159543117        0.05190143963707
H           -1.80738493187756       -1.76850480990351        0.09513931850603
H            2.22317931166539       -1.20803500367284       -0.03874261095493
H            1.98448799243085        1.27648072485596       -0.08904263162078
