25
 energy: -37.467501064984 gnorm: 0.000802217252 xtb: 6.6.0 (conda-forge)
C           -1.65601798934262        1.94238020720224        0.40092276031007
N           -1.54294889578459        0.52113600817579        0.22576681756765
C           -0.47402993527441       -0.22953720604479        0.84069605994544
C           -0.90948804552409       -1.69612850215157        0.62885916153886
C           -1.84789949760774       -1.63652724787717       -0.57367687906773
C           -2.33089892307129       -0.19368378084988       -0.60808443124563
O           -3.24661281780216        0.25350752667988       -1.25921623908381
C            0.86872541984069        0.04893127663811        0.20661279143029
C            0.99328493315744        0.35386924390488       -1.14610375396828
N            2.15035026172444        0.57193185465622       -1.74245098655531
C            3.25446129962712        0.49644727237126       -1.02087074731553
C            3.25418671407543        0.20322064051742        0.33482348134396
C            2.03756236017527       -0.02285196015327        0.95544340611833
H           -1.81509267299980        2.18600687807542        1.45437408993995
H           -2.51269419566980        2.27619118259445       -0.18165751695917
H           -0.75660145513879        2.45238780851840        0.04860204147549
H           -0.41585647500199        0.01725106065654        1.90930851966564
H           -0.05271022638504       -2.34725459790984        0.46270006270417
H           -1.44586188462108       -2.04980061073691        1.50947888430580
H           -1.32739736769238       -1.84437437928767       -1.51006394670428
H           -2.69092321726527       -2.32055420909815       -0.49926044420651
H            0.12044262786739        0.43387192276879       -1.78127897174031
H            4.17629959999228        0.68145364864264       -1.55584465249671
H            4.17814519021599        0.15570132863665        0.88993456233013
H            1.99167519250501       -0.25347536592923        2.01118593066749
