3
 energy: -5.070544094159 gnorm: 0.000338082001 xtb: 6.6.0 (conda-forge)
O            0.01580556184926        0.37857349864087        0.00000000000000
H            0.76430206332065       -0.22147828506899        0.00000000000000
H           -0.78010762516991       -0.15699521357188        0.00000000000000
