26
 energy: -50.309762757106 gnorm: 0.000194165778 xtb: 6.6.0 (conda-forge)
C           -4.10220208624113        0.34393964222509        0.00529654053383
C           -3.70804007025456        1.60651953216998        0.42480713019945
C           -2.36420224349495        1.90112065712692        0.55976642488592
C           -1.39394896933035        0.94227826386049        0.27875886867760
C           -1.79211758168535       -0.32985840954830       -0.14395421196181
C           -3.14935971009944       -0.61631667916426       -0.27667501585867
C           -0.80748614201937       -1.38402454260731       -0.45530254806985
O           -1.14746736740972       -2.49423542762849       -0.82399036929226
C            0.61557584930981       -1.01955727174878       -0.29545971025544
C            1.01762675240722        0.26089144229463        0.13004768804615
C            0.03270678384220        1.31782136821532        0.44225360837321
O            0.34600215914766        2.43144290316683        0.81130331610805
C            2.38641094866549        0.53121691546100        0.25789364167776
C            3.32571922582650       -0.47980845199828       -0.04088672389297
C            2.91330492166293       -1.72948794855643       -0.45676349928718
C            1.56103596526971       -1.99415036756566       -0.58228520542167
O            4.64054772349464       -0.13365208937459        0.10984582532051
O            2.82933401659692        1.72859005471544        0.65776293406201
H           -5.15140318742228        0.11133920722715       -0.10089589987193
H           -4.45002280593518        2.35936975057072        0.64601764530999
H           -2.03490835048300        2.87701417275954        0.88473139726422
H           -3.43099352048037       -1.60598910506526       -0.60468826289059
H            3.64575186211128       -2.49253604686710       -0.68155360353706
H            1.21545536971515       -2.96372698193369       -0.90569871379103
H            5.20461998567499       -0.88174479023496       -0.11510362639840
H            3.79806047113118        1.71354420250000        0.68157237007017
