3
 energy: -5.070544094233 gnorm: 0.000338003196 xtb: 6.6.0 (conda-forge)
O            0.00836608308436        0.37877757944896        0.00000000000000
H           -0.77687211731385       -0.17232174216861       -0.00000000000000
H            0.76850603422949       -0.20645583728034        0.00000000000000
