21
 energy: -45.416852227867 gnorm: 0.000624552171 xtb: 6.6.0 (conda-forge)
C            0.95682486483486       -0.90996296408380       -0.02110432837583
C            1.88507932833477        0.26076468338330        0.18495001394253
O            2.43800677058465        0.87366407444421       -0.68660635315826
O            2.04496160955255        0.54804958613689        1.48272749128836
C           -0.53617465939391       -0.55116493950729        0.21593971809067
C           -1.06621747705360        0.43818243718026       -0.84910339366874
C           -0.40023456732382        1.79273711718005       -0.92212693089824
O           -0.28632365711291        2.42929011804443       -1.92893407463504
O            0.00244559609102        2.26394974235814        0.27225108306274
C           -1.34243796537021       -1.85171536708392        0.03519573917767
O           -2.08463056309491       -2.32390093292199        0.84127804772389
O           -1.12044828175557       -2.40260787205676       -1.16591364337238
O           -0.78451446184454       -0.12702158924349        1.51767477931196
H            1.22544817403498       -1.68350417954053        0.70106227453493
H            1.07850318089429       -1.28084458564034       -1.03791113240892
H            2.66099415998104        1.28803818387952        1.60030497660133
H           -2.12040429393470        0.62899885872255       -0.62112905493403
H           -1.00630098780124       -0.01153002759386       -1.84044695368195
H            0.39202950334953        3.14581915238488        0.15639600097620
H           -1.64197819167985       -3.21605717638127       -1.26100833979352
H           -0.29462808129256        0.68881568033915        1.68650408021642
