30
 energy: -55.769639966219 gnorm: 0.000398167584 xtb: 6.6.0 (conda-forge)
C           -2.59611733584063       -2.50899988776589       -0.17346290337333
C           -1.28361164297090       -2.77146910199461       -0.52799770808684
C           -0.34057309913777       -1.76375288677256       -0.48960199454423
C           -0.69210360096965       -0.47935959685920       -0.07838647267550
C           -2.01817254146162       -0.21370323147400        0.28420800226059
C           -2.95607546936314       -1.23261916194326        0.22039327205535
C           -2.43489132347969        1.17101874551091        0.72299464844075
C           -2.80789214938909        1.95102334342930       -0.51450338334688
O           -3.91040894663013        2.05665743366737       -0.97249521574232
O           -1.73041318147856        2.50501711423168       -1.10095758887012
N            0.24368753936344        0.55514117884526       -0.04884162951709
C            1.60599311114927        0.40561470315977        0.03795018272346
C            2.45882925351132        1.22545358444596       -0.71904658683980
C            3.83396378184196        1.14875587833669       -0.62908898304725
C            4.41068949735325        0.22952894939689        0.23094482566895
C            3.60562709546674       -0.57435759823003        1.01818979796662
C            2.22823563893341       -0.47380860536326        0.93807088529049
Cl           1.26732029779517       -1.41829169831412        2.02689964978184
Cl           1.74766919539054        2.37885431800140       -1.80453168635929
H           -3.33697224900399       -3.29277430538766       -0.20698196533311
H           -0.99375704518583       -3.76125010641568       -0.84725339008973
H            0.67729602983583       -1.95927718964441       -0.79367210396791
H           -3.97979834390417       -1.01987633075785        0.49032691889217
H           -3.31095924100781        1.10709693597917        1.36715553285895
H           -1.61660211336246        1.66853099003229        1.24333110398720
H           -1.98213240480929        2.96681286835188       -1.91625807565845
H           -0.05877603165101        1.42192753560460       -0.47922813788620
H            4.44591308991369        1.79781280921312       -1.23503543422402
H            5.48354447692586        0.15215249016999        0.29784956422687
H            4.04058771216568       -1.27155917745431        1.71632887540976
