21
 energy: -30.197518568716 gnorm: 0.000269477888 xtb: 6.6.0 (conda-forge)
C           -2.82152379915594        0.42296608165017       -0.41570042599101
C           -1.37346548767136        0.89270712706316       -0.60802422692877
C           -0.58278243010989       -0.19950602337267        0.08358422687351
N           -1.27965154408640       -1.12990381845709        0.59217257953654
C           -2.67909684525811       -0.90277239631810        0.37575004273519
C            0.87094698670629       -0.19008906695991        0.16349117071806
C            1.54855919024406       -1.22718578320696        0.81587514564313
N            2.85879041570154       -1.28791059805280        0.92873302252457
C            3.58028560817623       -0.31402669205823        0.39591637120088
C            3.02287720922324        0.76464077108984       -0.27392275141263
C            1.64522437616181        0.82809924393694       -0.39237250328482
H           -3.31702683695318        0.25305311869736       -1.36990435418948
H           -3.40619274185056        1.14881796754468        0.14661599997987
H           -1.09222993880198        0.96027408341448       -1.66018259611930
H           -1.18168349956420        1.85895624968386       -0.13868616398533
H           -3.08578531573310       -1.76162501594189       -0.16498363486639
H           -3.17481722926985       -0.86699729201642        1.34960737078500
H            0.98316690277937       -2.03435023243574        1.25933492977036
H            4.65187511672603       -0.40757195797216        0.51419402018339
H            3.65071950474097        1.53628520486987       -0.69275576292047
H            1.18171035799503        1.65623902884161       -0.90874246025227
