24
 energy: -42.176135791672 gnorm: 0.000671378946 xtb: 6.6.0 (conda-forge)
C            3.28578780555615        0.61006469855987       -0.20831906537080
N            2.15451559461271       -0.27505296015195       -0.21668376844018
C            2.15426766082024       -1.60871190770449       -0.37077784437317
N            0.95193448082711       -2.14745554064684       -0.33049440191251
C            0.11896811008093       -1.10248875720602       -0.13830266124356
C            0.83534612324634        0.08653320669822       -0.06096048635982
C            0.19940152795742        1.34925618786818        0.14494128969397
O            0.73968478738833        2.44177967339007        0.22834984707454
N           -1.18781529706682        1.20996713475905        0.25377007805294
C           -1.92773439670959        0.03674948914667        0.16626343397551
O           -3.14173606105564        0.04627081095930        0.26505518240766
N           -1.23568302561041       -1.13445417121511       -0.02267064056643
C           -1.95449602704088       -2.38905374753596       -0.12822892369658
C           -1.95210729917170        2.43066203763226        0.46577850160202
H            4.19457256629714        0.02777854516773       -0.34064005476986
H            3.19282020001055        1.34136756914326       -1.01210951898051
H            3.32527370532411        1.15208106844576        0.73713716131781
H            3.04858997667518       -2.18159004968094       -0.51387528630490
H           -1.26626432404244       -3.18892983589162        0.13020785804466
H           -2.80502342400537       -2.36504695782924        0.55058294266932
H           -2.31873874083038       -2.53079779111020       -1.14662078344057
H           -2.82161237055348        2.20065764351373        1.07701916994544
H           -2.28439210070447        2.83842024908371       -0.48990203408891
H           -1.30545947200508        3.15209340460453        0.96038000476393
