21
 energy: -38.985776735870 gnorm: 0.000855748747 xtb: 6.6.0 (conda-forge)
C           -3.13117873679176       -0.13705044651661       -0.13646964924009
N           -1.76328338852289       -0.56233773564822       -0.06074256013151
C           -1.27686949477293       -1.81303398746763       -0.00213409164668
N            0.03704399976654       -1.86564159117011        0.05705423227925
C            0.43344737475339       -0.57419729470083        0.03547165757495
C           -0.66865316487644        0.26996208754488       -0.03698791968820
C           -0.54086651731284        1.69667850172482       -0.06794310365220
O           -1.41537905531046        2.53402849953033       -0.13232228690992
N            0.80703817049248        2.04796072536659       -0.00997048222448
C            1.93792543209474        1.24925584195040        0.05914697832221
O            3.04648383059638        1.72878488519310        0.10128688001805
N            1.71225383553350       -0.10912996060332        0.08472170216050
C            2.83313324998468       -1.02193937536717        0.14188703659690
H           -3.29571524308213        0.42834405998836       -1.05495204157882
H           -3.78211656768107       -1.00893552317022       -0.11890942957029
H           -3.36465047788626        0.51639272238606        0.70522858044794
H           -1.90128217329901       -2.68420423323300       -0.00352935554617
H            1.00382785829703        3.04266417895884       -0.02550980615694
H            3.61714507510945       -0.57495844609282        0.75095352100492
H            2.48603437276994       -1.95712222903550        0.57353011733331
H            3.22546162013765       -1.20532067963796       -0.85980997939273
