20
 energy: -32.782977063239 gnorm: 0.000636711769 xtb: 6.6.0 (conda-forge)
C            3.68014697950991       -0.22856614213514       -0.28887269412198
C            2.36947248892894        0.44262428101659        0.07860082699626
O            2.30429032760487        1.56664824212489        0.51910346468566
N            1.29711918743806       -0.37188570476032       -0.14029236662657
C           -0.06529876110361       -0.11583374516290        0.06297278679737
C           -0.54152344525280        1.07979992910814        0.59541756883060
C           -1.89661950169904        1.27116590562209        0.76741831329404
C           -2.80361201238987        0.27732379323598        0.41341620956347
C           -2.33087630795572       -0.91716078797471       -0.11506266243575
C           -0.97376523629986       -1.11015610767055       -0.28755177806107
O           -4.13201166304880        0.51336029605146        0.59973757431549
H            4.48774629859789        0.48984649289189       -0.18361536736534
H            3.65077526607258       -0.58960979474810       -1.31488154460480
H            3.86629908036144       -1.06980723993117        0.37591418720770
H            1.49423753721183       -1.28958656248859       -0.51550458543978
H            0.15531296205134        1.85334984611804        0.86918928922582
H           -2.27420567816376        2.19326812099108        1.17846761657791
H           -3.02588919493440       -1.69863122394598       -0.39322182624706
H           -0.61818121359116       -2.04421667040448       -0.70032797972201
H           -4.64341711333789       -0.25173292793839        0.31109296713009
