6
 energy: -8.216051830916 gnorm: 0.000707237952 xtb: 6.6.0 (conda-forge)
C           -0.44496465938081        0.05219975425267       -0.08697234007632
C            0.90827222663559       -0.10879341388286        0.17373064183187
N            2.03238790752655       -0.23666688145041        0.39517378328330
H           -0.78256916789853       -0.65284205159068       -0.87006708794637
H           -1.04941230228117       -0.13406437940874        0.82087610493132
H           -0.66381400460163        1.08006697208001       -0.43274110202381
