24
 energy: -42.153850298159 gnorm: 0.000318429241 xtb: 6.6.0 (conda-forge)
C            3.32054885280995        0.02278571873609        0.18091313741736
N            2.06337574621615        0.69561789521531        0.02589029444326
C            1.82490906628274        2.01588403326969       -0.04932361711700
N            0.55175991331173        2.31515975699919       -0.19827654734670
C           -0.07795189575714        1.11967799152495       -0.22307111463458
C            0.83552706183761        0.08429023615377       -0.08455345824333
C            0.45018743557843       -1.29431756468342       -0.06750437063636
O            1.18489002191828       -2.25660947353444        0.05026699700819
N           -0.93409318873895       -1.42583774532618       -0.20778670262781
C           -1.87536226928383       -0.41310010461173       -0.34907638944419
O           -3.05510943788665       -0.66309141911942       -0.46018255005317
N           -1.40997505441777        0.88494022947979       -0.35061609621027
C           -2.34622465170497        1.97670555840494       -0.50884281344501
C           -1.48116394808446       -2.77277222282036       -0.21166174810983
H            3.28836390236354       -0.62596124887107        1.05711689971837
H            4.11319749531989        0.75985840485411        0.29434651014794
H            3.52010642169793       -0.60248437503112       -0.69085250337174
H            2.60039039700802        2.75371543223159        0.00735323136478
H           -3.27510162027340        1.71751947720526       -0.00337503994212
H           -1.89957342373676        2.86874171204227       -0.07736480122712
H           -2.55607931128608        2.14732369337857       -1.56621655782788
H           -2.11004904455486       -2.92225764290212        0.66597376959336
H           -2.08860940704472       -2.91844940977148       -1.10388923917336
H           -0.64446306157471       -3.46733893282418       -0.19796729028279
