14
 energy: -13.665127687969 gnorm: 0.000196156069 xtb: 6.6.0 (conda-forge)
C           -1.87583146891081       -0.13660315618917       -0.20862164050052
C           -0.62977993813552       -0.18478938542263        0.66719198918524
C            0.62978094395626        0.18478569297402       -0.11276490041882
C            1.87583082121984        0.13660577582691        0.76305115918919
H           -2.75988077682468       -0.40290625057616        0.36629437126732
H           -2.01855604164658        0.86284754534408       -0.61438478243887
H           -1.78481755394976       -0.83238203353131       -1.04020093378732
H           -0.74860282163294        0.50532155129881        1.50589958143405
H           -0.51488088141321       -1.18982660690299        1.08010992429903
H            0.74860692996480       -0.50532799176275       -0.95146996251808
H            0.51488025988222        1.18982127761458       -0.52568645444502
H            1.78481061459213        0.83238309136574        1.59463105388611
H            2.01856027701984       -0.86284451381099        1.16881327850626
H            2.75987963587841        0.40291500377186        0.18813731634143
