47
 energy: -86.814103634641 gnorm: 0.000252710446 xtb: 6.6.0 (conda-forge)
C            0.23712476542218        2.95252802118416        0.23806144636547
C            1.61714053701031        2.43209004134636        0.11459257537174
C            2.16691077044895        1.16748261282504        0.08958212903517
C            3.57101928373598        1.41262335164337       -0.04057183643734
N            3.80501854361279        2.69865226667111       -0.08815895551819
O            2.60592182350252        3.32863416856047        0.01205853411168
C            4.63720781638570        0.41841124759016       -0.12411153330022
C            5.73234340506555        0.50020768881886        0.73111099183519
C            6.73664495616598       -0.44795018106179        0.68379677463416
C            6.66243474328131       -1.49093828535859       -0.22425621277141
C            5.58992748428374       -1.57970402501325       -1.09514526977829
C            4.58849560542426       -0.62749959701858       -1.04155440165275
Cl           3.27609282449199       -0.73334515531320       -2.17838040266515
C            1.54351956338519       -0.15036909642308        0.27164411568702
O            2.13382036726453       -1.10648943227256        0.75990704458748
N            0.25402755090555       -0.22038305971514       -0.13300340499674
C           -0.52845799359564       -1.40120759840747        0.02139951752792
C           -1.84614483593742       -1.27374382654481        0.83336103333666
N           -2.56030257104443       -1.73307994541262       -0.33419692965486
C           -1.46945582721424       -1.74278755443343       -1.14866920213334
O           -1.34419218792667       -1.94101041536671       -2.33129560724453
C           -3.89534280307415       -1.23890397841905       -0.51177249588313
C           -3.83743579891273        0.27329998524403       -0.13554502833217
S           -2.49127605658912        0.39404720447261        1.16279982845431
C           -3.41543157866787        1.09234121169689       -1.34751887577917
C           -5.13157168420384        0.79597048315336        0.46428372333421
C           -4.84933354093639       -2.02187077148067        0.38577873993981
O           -4.52601192329583       -2.52774203244842        1.43437969542113
O           -6.05710464285120       -2.08041664366031       -0.12485803560290
H           -0.24969677780273        2.95610130896188       -0.73677053915876
H           -0.34739450991819        2.34804224889547        0.92788981084674
H            0.28242368212958        3.97821343599827        0.59386452737703
H            5.77440547466464        1.31637463735051        1.43418591304840
H            7.57576671825269       -0.37292205567620        1.35630546571725
H            7.43976290364800       -2.23693711692792       -0.26329364186911
H            5.52644558723845       -2.37928226063992       -1.81563187641709
H           -0.19512633286711        0.59840797553091       -0.51554643789578
H            0.13376476096834       -2.20758025288097        0.34611760562579
H           -1.95548184774776       -1.89091430612164        1.72439182450032
H           -4.20697137980822       -1.35696815051179       -1.55209636317945
H           -2.54716639010712        0.65180850392720       -1.83534391001058
H           -4.22982234115363        1.13368631009108       -2.06695408301985
H           -3.17079506033275        2.10482259601454       -1.03845657746101
H           -5.04024484954420        1.86229042475229        0.65064306792610
H           -5.95688190784931        0.62450057945483       -0.22271689103322
H           -5.34544001319875        0.30281474115122        1.40995101542761
H           -6.69303631269718       -2.58110530423130        0.42624313170956
