3
 energy: -5.504066173989 gnorm: 0.000525365326 xtb: 6.6.0 (conda-forge)
C           -0.02535592969226        0.00711501037445       -0.00000000000000
N            1.06993747892635       -0.29987571948119        0.00000000000000
H           -1.04458154923410        0.29276070910674       -0.00000000000000
