14
 energy: -1.958610435191 gnorm: 0.000757145872 xtb: 6.6.0 (conda-forge)
C           -1.57538649268703        0.47429673899521        0.02299813378967
C           -0.55989990058824       -0.31774187405544       -0.78654089464726
C            0.64216701779991       -0.78673784438935        0.04170124895123
C            1.51339203109794        0.35731718687046        0.53779902724625
H           -1.14110413660537        1.39122817638516        0.42630624771736
H           -1.94429299406356       -0.10690756392281        0.87108336162448
H           -2.44271462600103        0.76380651195072       -0.57597131690758
H           -0.20170206898035        0.28601423048475       -1.63174066858624
H           -1.05395113478201       -1.18535627246016       -1.24749860332913
H            0.28331129882451       -1.38074894589996        0.89351163086445
H            1.25264854829793       -1.48281420605999       -0.55168139238466
H            2.38848469419119       -0.00043616147171        1.08653262536836
H            0.96246823041049        1.02173999367282        1.20648218003422
H            1.87647953308563        0.96624002990028       -0.29318157974114
