5
 energy: -4.175218442538 gnorm: 0.000237506987 xtb: 6.6.0 (conda-forge)
C           -0.00000023417431       -0.00000033311363       -0.00000095664280
H           -0.66291283113897        0.85150365733595       -0.08332156666665
H           -0.39866445562186       -0.82528583896875       -0.57569702778508
H            0.08353034433802       -0.29189429760905        1.03888032055281
H            0.97804717659712        0.26567681235549       -0.37986076945828
