14
 energy: -13.664174916565 gnorm: 0.000737812248 xtb: 6.6.0 (conda-forge)
C           -1.58230909155499        0.47291666284224        0.02470005115036
C           -0.55336573042410       -0.30694984801758       -0.78666370870890
C            0.63462115491149       -0.78353697575532        0.05057620524310
C            1.52032061224341        0.35864410979277        0.53657651878735
H           -1.15897971250621        1.39873161870198        0.40544799591403
H           -1.92983672987081       -0.12034065290289        0.86818725413667
H           -2.44078946783517        0.72341981482337       -0.59475938521221
H           -0.18797371649055        0.31739409289843       -1.60532667719361
H           -1.04111350453527       -1.17922478332666       -1.22860213140006
H            0.26469000807016       -1.34693780224880        0.91037468450719
H            1.23807467896748       -1.46375713479135       -0.55540498374861
H            2.38937258399835       -0.03372652865856        1.06027805094430
H            0.97954583026914        1.00864556493124        1.21948945616193
H            1.86764308475708        0.95462186171113       -0.30507333058154
