3
 energy: -5.661426291617 gnorm: 0.000127614604 xtb: 6.6.0 (conda-forge)
C           -0.05555747584999        0.08575713757257        0.00000000000000
N            1.16429000158574       -0.14699747096015        0.00000000000000
H           -1.10873252573575        0.28644033338758       -0.00000000000000
