20
 energy: -25.653328953792 gnorm: 0.000149864137 xtb: 6.6.0 (conda-forge)
C            2.46424958853899       -0.47910928674183        0.63051205949209
C            1.16766348980301        0.20784592852554        0.30418399309230
C            0.02369075908683       -0.54659613189439       -0.00074955609694
C           -1.18130199125268        0.10684213853378       -0.30382050099318
C           -1.22150802801081        1.49036312431830       -0.29690402808967
C           -0.09698581311855        2.23787556152316        0.00290632329830
C            1.08802324244875        1.58967119329246        0.30089337751172
C           -2.41363595659986       -0.68885490282984       -0.63207616671025
N            0.08310780405416       -1.91702321273371       -0.00264186050545
H            3.23673730436265        0.25644303894768        0.83922865203092
H            2.35791673112379       -1.11758508255533        1.50893198805873
H            2.80041450902762       -1.09619730973006       -0.20421605899312
H           -2.15109043734421        1.99013380832412       -0.53076676280197
H           -0.14372043294842        3.31626422488995        0.00431545938968
H            1.97090865274019        2.16737718949049        0.53617006660088
H           -3.24687861009584       -0.02234806319815       -0.83898780223712
H           -2.69507936212599       -1.33485841098333        0.20101968781108
H           -2.25255684448828       -1.31347340622131       -1.51212209032173
H           -0.72847247394207       -2.45927238849451       -0.21871771365575
H            0.93841786874072       -2.38759801246303        0.21274093311948
