21
 energy: -39.629091578956 gnorm: 0.000689393812 xtb: 6.6.0 (conda-forge)
C            3.50291697958400       -0.27597748215816       -0.22786046227191
C            2.25418513434631        0.19737016590803        0.45705660394038
O            2.16296281463953        0.55957132544116        1.59644604725796
O            1.21902594847373        0.13593122636459       -0.40616636159362
C           -0.05997618157150        0.44537055903002       -0.00378336651897
C           -0.35202567544207        1.64554880535807        0.62809760127119
C           -1.66115664784546        1.95191432343469        0.95458430505863
C           -2.68577879930425        1.07317115371747        0.64134062163174
C           -2.39973060622366       -0.12280040096283        0.01248370259384
C           -1.08649894568245       -0.45906207677411       -0.30951908410720
C           -0.77497925109675       -1.76998221253253       -0.92563315242735
O            0.31338308856694       -2.28218130159563       -0.98625208676929
O           -1.86840786718410       -2.38049409874161       -1.41391687545032
H            3.35460165176068       -1.31004763831598       -0.53143184540638
H            4.34809164384019       -0.19841628094890        0.44828074171244
H            3.67739148249853        0.31528008251516       -1.12375439217488
H            0.44826216916374        2.32849764858614        0.86515836381014
H           -1.87979458860489        2.88459306290127        1.45207563532010
H           -3.70628922767223        1.31933383321261        0.89141553056663
H           -3.18752016137964       -0.81889184425217       -0.22817582953533
H           -1.61856296086652       -3.23862885018745       -1.79064569690745
