40
 energy: -66.764009122890 gnorm: 0.000514184659 xtb: 6.6.0 (conda-forge)
C           -3.99289899084577       -3.01868543942737        0.80230296829501
N           -4.06405006373749       -1.61825151177024        0.43534403955250
C           -2.77977788625999       -1.03298995499724        0.08760814338548
C           -1.98615517333720       -0.68416778970512        1.34859550469223
C           -0.64707238519910        0.00001918466146        1.03221975064420
C           -0.85969355842201        1.27826229194175        0.25291196971441
C           -0.74180215832090        1.31038063079970       -1.12989610569142
C           -0.96912286130324        2.48635352449406       -1.82286645636059
C           -1.32209326706258        3.63821014325141       -1.14192553786285
C           -1.44311012044975        3.61193328055837        0.23747089426136
C           -1.21041704090609        2.43883622759566        0.93158273238736
O            0.13877320902692       -0.95895832500037        0.33680550165866
C            1.44458001191906       -0.71656304600227        0.10516880402423
C            2.11976541863181        0.45695365227187        0.43693744058024
C            3.46575405417415        0.58538560034338        0.15014497275711
C            4.15129665651871       -0.44690478160327       -0.47227735648190
C            3.48641461093526       -1.62357512904438       -0.80495932247697
C            2.14719109780205       -1.75343295518708       -0.52007050758978
C            5.61654602803738       -0.32180246537463       -0.75673841181150
F            6.02829680978343        0.95131339160262       -0.86269973821782
F            5.98082849553387       -0.93422987479502       -1.89626932314268
F            6.37546276464412       -0.87559869239823        0.21481650625048
H           -3.43947390760755       -3.12011907811452        1.73489298630167
H           -3.50183737165709       -3.64314685457941        0.03960685543807
H           -5.00281457268558       -3.39136698803861        0.96278750065205
H           -4.69974233852918       -1.51620028345458       -0.34908475864112
H           -2.17125824817389       -1.70215115282486       -0.54300245673609
H           -2.97076721347464       -0.11379176020341       -0.47138475612626
H           -2.58723642648245       -0.02185451253488        1.97158897446875
H           -1.77335064409730       -1.59299219317053        1.91133754062031
H           -0.15367770422788        0.23876052449578        1.98845010433363
H           -0.46867077204969        0.41210986459092       -1.66378460833932
H           -0.87217952520263        2.50060698401628       -2.89835750511081
H           -1.50188102677344        4.55464201700472       -1.68364958317005
H           -1.71727358072606        4.50780967621344        0.77449461407208
H           -1.30032414738081        2.42014153599771        2.00867096818551
H            1.60481123889955        1.27944376283657        0.90597042001972
H            3.98290869210739        1.49755496097326        0.40519596520764
H            4.02176628382189       -2.42630268471855       -1.28804128796356
H            1.61208561307697       -2.65553178070497       -0.76959744178014
