12
 energy: -21.684461907781 gnorm: 0.000649753490 xtb: 6.6.0 (conda-forge)
C           -1.13588119928810       -0.63362737594325        0.49777037399838
C           -0.34672824956846        0.17002718747559       -0.54929787061809
C            1.10000485209119        0.24475102330704       -0.09235282640002
O            1.58927676114188        1.24171874507805        0.37156143514399
O            1.75130293734564       -0.90839919265163       -0.21766527826704
O           -0.85906382105137        1.46166468200970       -0.71886972281445
H           -0.74838963562784       -1.64612862604784        0.56022293594167
H           -1.05846401098266       -0.15486357041838        1.47173230252238
H           -2.18156744975915       -0.66225759529678        0.20590760643575
H           -0.39824803405679       -0.33958741913327       -1.51768956433732
H            2.66138929210454       -0.82623546082221        0.11158978781845
H           -0.37383144234893        2.05283760244296       -0.12290917942372
