60
 energy: -110.796263541277 gnorm: 0.000571328176 xtb: 6.6.0 (conda-forge)
C           -0.21061332393711       -4.38454386216102       -0.31330140599891
O           -1.58532377694384       -4.11376818382509       -0.43041027655595
C           -2.02462929599766       -2.85112042079535       -0.17300612064207
C           -1.20775038185387       -1.77964663609199        0.13798053382392
C           -1.73663548167612       -0.50371595121561        0.39354826548097
C           -3.13419802332270       -0.33828111736245        0.33078848815170
C           -3.95194237769372       -1.40224488216084        0.02103404109282
C           -3.41514849040471       -2.67083825251293       -0.23904334199338
O           -4.22441826446379       -3.71697342754045       -0.54623441420146
O           -5.32828889664114       -1.35005460264906       -0.06489258581488
C           -5.96205338874045       -0.13015350337698        0.22362913928538
C           -0.92659490300643        0.63796534976184        0.71155014852285
O           -1.67543489509856        1.77585518979961        0.94989923398494
C           -1.10314712684354        2.96374471174973        1.24778352572465
C           -1.95337036761139        4.03291180850975        1.47315280044463
C           -1.41754024717708        5.28295656284012        1.77260083618025
C           -0.04101765034731        5.45313908884575        1.83830299346674
C            0.81261790426499        4.38435521913793        1.61322804039301
C            0.29445831029114        3.10824368022278        1.31472245548712
C            1.08583515958158        1.94734916033299        1.07000323408913
C            0.47460005045023        0.74093443348488        0.78818785024500
O            1.19926784327442       -0.40567862071500        0.54255680998531
C            2.59037154809802       -0.40207892242373        0.71805750396175
C            3.03903769028672       -1.87699669276191        0.70411646316358
C            3.57513254317247       -2.26264728423674       -0.67968877112840
C            2.79654812912357       -1.49255930522558       -1.75027398359578
C            3.09137279982326        0.00360474129807       -1.58505753287509
O            3.25494294039378        0.38510209432841       -0.22734770674431
C            2.01116470032894        0.85121321888502       -2.27497420974444
O            2.06292598224730        0.55809765752663       -3.65700013095923
O            3.20205313256358       -1.96582303837480       -3.00985670743672
O            3.44147422521665       -3.65115819831942       -0.84065821375098
O            4.00053602631992       -2.04346838408924        1.70940538023873
O            2.14556244381345        4.62310205396488        1.69055686686107
O           -2.20772484289837        6.36053770891362        2.00260944127241
H           -0.10289457948134       -5.44705745162979       -0.52457262994277
H            0.38305334294265       -3.81445019172916       -1.03496987528864
H            0.15633677613666       -4.17950681191438        0.69760877041560
H           -0.14692329833439       -1.92121545473169        0.19461639539886
H           -3.54869799074444        0.63379369813958        0.52927359716759
H           -5.13570523597782       -3.39276262606345       -0.52837827425300
H           -5.74846493525827        0.19896447787789        1.24521006032715
H           -7.02936545959999       -0.32113482535755        0.12042901130544
H           -5.66378175235528        0.65236377107563       -0.48103682929344
H           -3.02057882373449        3.88092472613250        1.41396754494149
H            0.37034688721908        6.42098630304954        2.06742807612071
H            2.16075905577789        2.00581961824039        1.07593755236799
H            2.87379025444354        0.02327742999605        1.69123755134676
H            2.15664073098540       -2.50143493651056        0.90966198309391
H            4.63623342880522       -1.97091442754018       -0.74587826732388
H            1.71910997140576       -1.67752452236465       -1.60644332638287
H            4.05276153390840        0.21837707020754       -2.06939583125319
H            2.21950789798480        1.91169979533218       -2.08585569665115
H            1.02322272581954        0.60524056047354       -1.86454953511937
H            1.42404964601404        1.11098042612818       -4.11876968548762
H            2.87605781185313       -1.34158425467041       -3.67334870905818
H            3.53528189555121       -3.83248697813863       -1.78501332413723
H            4.33298590724965       -2.94764298849785        1.65201984553246
H            2.64033212113501        3.81172120391806        1.52379571152085
H           -3.13612760631757        6.10640499481988        1.93535723424427
