16
 energy: -36.061665132646 gnorm: 0.000319845974 xtb: 6.6.0 (conda-forge)
C           -0.59546498950100       -0.82252492634982        0.05273829591653
C            0.66848690148719       -0.53236167066867       -0.81285773894925
C            1.47791700392508        0.55243069208180       -0.11258983145125
O            2.54898703654477        0.34507746048045        0.40607973525780
O            0.86915185224467        1.71989797666736       -0.12088814070944
O            1.42628908428651       -1.67842437092135       -1.03208518077696
C           -1.55625901473927        0.35448875515826        0.00335910393980
O           -1.94605276456547        0.88734429779591        1.01994206540708
O           -1.91332892741382        0.69625871857108       -1.20703109747544
O           -0.23818426756811       -1.10551902141750        1.37801571573242
H           -1.08873021813510       -1.69908400222261       -0.39330702686185
H            0.33657647204932       -0.17093925773532       -1.79109004366713
H            1.37976134969488        2.42075454356930        0.33580172140128
H            1.94368093593130       -1.87769404256135       -0.23527395910705
H           -2.54148516985795        1.44830917598520       -1.22807028701689
H           -0.77114528438316       -0.53811432843250        1.96475666836018
